ieee-cdf/ieee-cdf-converter/src/test/resources/ieee14cdf-solved.xiidm
<?xml version="1.0" encoding="UTF-8"?>
<iidm:network xmlns:iidm="http://www.powsybl.org/schema/iidm/1_18" xmlns:slt="http://www.powsybl.org/schema/iidm/ext/slack_terminal/1_5" id="ieee14cdf-solved" caseDate="1993-08-19T00:00:00.000Z" forecastDistance="0" sourceFormat="IEEE-CDF" minimumValidationLevel="STEADY_STATE_HYPOTHESIS">
    <iidm:substation id="S1">
        <iidm:voltageLevel id="VL1" nominalV="1.0" topologyKind="BUS_BREAKER">
            <iidm:busBreakerTopology>
                <iidm:bus id="B1" name="Bus 1     HV" v="1.06" angle="0.0"/>
            </iidm:busBreakerTopology>
            <iidm:generator id="B1-G" energySource="OTHER" minP="-9999.0" maxP="9999.0" targetP="232.4" localTargetV="1.06" localTargetQ="-16.5" bus="B1" connectableBus="B1" p="-232.4" q="16.5">
                <iidm:minMaxReactiveLimits minQ="-1.7976931348623157E308" maxQ="1.7976931348623157E308"/>
                <iidm:voltageRegulation mode="VOLTAGE" regulating="true"/>
            </iidm:generator>
        </iidm:voltageLevel>
    </iidm:substation>
    <iidm:substation id="S2">
        <iidm:voltageLevel id="VL2" nominalV="1.0" topologyKind="BUS_BREAKER">
            <iidm:busBreakerTopology>
                <iidm:bus id="B2" name="Bus 2     HV" v="1.045" angle="-4.98"/>
            </iidm:busBreakerTopology>
            <iidm:generator id="B2-G" energySource="OTHER" minP="-9999.0" maxP="9999.0" targetP="40.0" localTargetV="1.045" localTargetQ="43.6" bus="B2" connectableBus="B2" p="-40.0" q="-43.6">
                <iidm:minMaxReactiveLimits minQ="-40.0" maxQ="50.0"/>
                <iidm:voltageRegulation mode="VOLTAGE" regulating="true"/>
            </iidm:generator>
            <iidm:load id="B2-L" loadType="UNDEFINED" p0="21.7" q0="12.7" bus="B2" connectableBus="B2" p="21.7" q="12.7"/>
        </iidm:voltageLevel>
    </iidm:substation>
    <iidm:substation id="S3">
        <iidm:voltageLevel id="VL3" nominalV="1.0" topologyKind="BUS_BREAKER">
            <iidm:busBreakerTopology>
                <iidm:bus id="B3" name="Bus 3     HV" v="1.01" angle="-12.72"/>
            </iidm:busBreakerTopology>
            <iidm:generator id="B3-G" energySource="OTHER" minP="-9999.0" maxP="9999.0" targetP="0.0" localTargetV="1.01" localTargetQ="25.1" bus="B3" connectableBus="B3" p="-0.0" q="-25.1">
                <iidm:minMaxReactiveLimits minQ="0.0" maxQ="40.0"/>
                <iidm:voltageRegulation mode="VOLTAGE" regulating="true"/>
            </iidm:generator>
            <iidm:load id="B3-L" loadType="UNDEFINED" p0="94.2" q0="19.0" bus="B3" connectableBus="B3" p="94.2" q="19.0"/>
        </iidm:voltageLevel>
    </iidm:substation>
    <iidm:substation id="S4">
        <iidm:voltageLevel id="VL4" nominalV="1.0" topologyKind="BUS_BREAKER">
            <iidm:busBreakerTopology>
                <iidm:bus id="B4" name="Bus 4     HV" v="1.018" angle="-10.31"/>
                <iidm:bus id="B7" name="Bus 7     ZV" v="1.062" angle="-13.36"/>
                <iidm:bus id="B9" name="Bus 9     LV" v="1.056" angle="-14.94"/>
            </iidm:busBreakerTopology>
            <iidm:load id="B4-L" loadType="UNDEFINED" p0="47.8" q0="-3.9" bus="B4" connectableBus="B4" p="47.8" q="-3.9"/>
            <iidm:load id="B9-L" loadType="UNDEFINED" p0="29.5" q0="16.6" bus="B9" connectableBus="B9" p="29.5" q="16.6"/>
            <iidm:shuntCompensator id="B9-SH" sectionCount="1" bus="B9" connectableBus="B9" q="-21.187584">
                <iidm:shuntLinearModel bPerSection="19.0" maximumSectionCount="1"/>
            </iidm:shuntCompensator>
        </iidm:voltageLevel>
        <iidm:twoWindingsTransformer id="T4-7-1" r="0.0" x="0.0020912" ratedU1="0.978" ratedU2="1.0" bus1="B4" connectableBus1="B4" voltageLevelId1="VL4" bus2="B7" connectableBus2="B7" voltageLevelId2="VL4" p1="28.12612787731891" q1="-9.753887720619232" p2="-28.126127877318922" q2="11.464367695376083"/>
        <iidm:twoWindingsTransformer id="T4-9-1" r="0.0" x="0.0055618" ratedU1="0.969" ratedU2="1.0" bus1="B4" connectableBus1="B4" voltageLevelId1="VL4" bus2="B9" connectableBus2="B9" voltageLevelId2="VL4" p1="16.10119634666402" q1="-0.37521312955084385" p2="-16.101196346664025" q2="1.6823451017767743"/>
    </iidm:substation>
    <iidm:substation id="S5">
        <iidm:voltageLevel id="VL5" nominalV="1.0" topologyKind="BUS_BREAKER">
            <iidm:busBreakerTopology>
                <iidm:bus id="B5" name="Bus 5     HV" v="1.02" angle="-8.77"/>
                <iidm:bus id="B6" name="Bus 6     LV" v="1.07" angle="-14.22"/>
            </iidm:busBreakerTopology>
            <iidm:generator id="B6-G" energySource="OTHER" minP="-9999.0" maxP="9999.0" targetP="0.0" localTargetV="1.07" localTargetQ="12.7" bus="B6" connectableBus="B6" p="-0.0" q="-12.7">
                <iidm:minMaxReactiveLimits minQ="-6.0" maxQ="24.0"/>
                <iidm:voltageRegulation mode="VOLTAGE" regulating="true"/>
            </iidm:generator>
            <iidm:load id="B5-L" loadType="UNDEFINED" p0="7.6" q0="1.6" bus="B5" connectableBus="B5" p="7.6" q="1.6"/>
            <iidm:load id="B6-L" loadType="UNDEFINED" p0="11.2" q0="7.5" bus="B6" connectableBus="B6" p="11.2" q="7.5"/>
        </iidm:voltageLevel>
        <iidm:twoWindingsTransformer id="T5-6-1" r="0.0" x="0.0025202000000000002" ratedU1="0.932" ratedU2="1.0" bus1="B5" connectableBus1="B5" voltageLevelId1="VL5" bus2="B6" connectableBus2="B6" voltageLevelId2="VL5" p1="44.13181544546139" q1="12.70537901268381" p2="-44.1318154454614" q2="-8.267738828437409"/>
    </iidm:substation>
    <iidm:substation id="S8">
        <iidm:voltageLevel id="VL8" nominalV="1.0" topologyKind="BUS_BREAKER">
            <iidm:busBreakerTopology>
                <iidm:bus id="B8" name="Bus 8     TV" v="1.09" angle="-13.36"/>
            </iidm:busBreakerTopology>
            <iidm:generator id="B8-G" energySource="OTHER" minP="-9999.0" maxP="9999.0" targetP="0.0" localTargetV="1.09" localTargetQ="17.6" bus="B8" connectableBus="B8" p="-0.0" q="-17.6">
                <iidm:minMaxReactiveLimits minQ="-6.0" maxQ="24.0"/>
                <iidm:voltageRegulation mode="VOLTAGE" regulating="true"/>
            </iidm:generator>
        </iidm:voltageLevel>
    </iidm:substation>
    <iidm:substation id="S10">
        <iidm:voltageLevel id="VL10" nominalV="1.0" topologyKind="BUS_BREAKER">
            <iidm:busBreakerTopology>
                <iidm:bus id="B10" name="Bus 10    LV" v="1.051" angle="-15.1"/>
            </iidm:busBreakerTopology>
            <iidm:load id="B10-L" loadType="UNDEFINED" p0="9.0" q0="5.8" bus="B10" connectableBus="B10" p="9.0" q="5.8"/>
        </iidm:voltageLevel>
    </iidm:substation>
    <iidm:substation id="S11">
        <iidm:voltageLevel id="VL11" nominalV="1.0" topologyKind="BUS_BREAKER">
            <iidm:busBreakerTopology>
                <iidm:bus id="B11" name="Bus 11    LV" v="1.057" angle="-14.79"/>
            </iidm:busBreakerTopology>
            <iidm:load id="B11-L" loadType="UNDEFINED" p0="3.5" q0="1.8" bus="B11" connectableBus="B11" p="3.5" q="1.8"/>
        </iidm:voltageLevel>
    </iidm:substation>
    <iidm:substation id="S12">
        <iidm:voltageLevel id="VL12" nominalV="1.0" topologyKind="BUS_BREAKER">
            <iidm:busBreakerTopology>
                <iidm:bus id="B12" name="Bus 12    LV" v="1.055" angle="-15.08"/>
            </iidm:busBreakerTopology>
            <iidm:load id="B12-L" loadType="UNDEFINED" p0="6.1" q0="1.6" bus="B12" connectableBus="B12" p="6.1" q="1.6"/>
        </iidm:voltageLevel>
    </iidm:substation>
    <iidm:substation id="S13">
        <iidm:voltageLevel id="VL13" nominalV="1.0" topologyKind="BUS_BREAKER">
            <iidm:busBreakerTopology>
                <iidm:bus id="B13" name="Bus 13    LV" v="1.05" angle="-15.16"/>
            </iidm:busBreakerTopology>
            <iidm:load id="B13-L" loadType="UNDEFINED" p0="13.5" q0="5.8" bus="B13" connectableBus="B13" p="13.5" q="5.8"/>
        </iidm:voltageLevel>
    </iidm:substation>
    <iidm:substation id="S14">
        <iidm:voltageLevel id="VL14" nominalV="1.0" topologyKind="BUS_BREAKER">
            <iidm:busBreakerTopology>
                <iidm:bus id="B14" name="Bus 14    LV" v="1.036" angle="-16.03"/>
            </iidm:busBreakerTopology>
            <iidm:load id="B14-L" loadType="UNDEFINED" p0="14.9" q0="5.0" bus="B14" connectableBus="B14" p="14.9" q="5.0"/>
        </iidm:voltageLevel>
    </iidm:substation>
    <iidm:line id="L1-2-1" r="1.9380000000000002E-4" x="5.917E-4" b1="2.64" b2="2.64" bus1="B1" connectableBus1="B1" voltageLevelId1="VL1" bus2="B2" connectableBus2="B2" voltageLevelId2="VL2" p1="156.80460550423726" q1="-20.385996504218742" p2="-152.51135079358247" q2="27.644686712136078"/>
    <iidm:line id="L1-5-1" r="5.403000000000001E-4" x="0.0022304" b1="2.46" b2="2.46" bus1="B1" connectableBus1="B1" voltageLevelId1="VL1" bus2="B5" connectableBus2="B5" voltageLevelId2="VL5" p1="75.45984665884176" q1="3.633925403313589" p2="-72.70202647937735" q2="2.4271286338461557"/>
    <iidm:line id="L2-3-1" r="4.699E-4" x="0.0019797" b1="2.19" b2="2.19" bus1="B2" connectableBus1="B2" voltageLevelId1="VL2" bus2="B3" connectableBus2="B3" voltageLevelId2="VL3" p1="73.21495680663453" q1="3.562425614598175" p2="-70.89310172288711" q2="1.5940519384338359"/>
    <iidm:line id="L2-4-1" r="5.811E-4" x="0.0017632000000000001" b1="1.7000000000000002" b2="1.7000000000000002" bus1="B2" connectableBus1="B2" voltageLevelId1="VL2" bus2="B4" connectableBus2="B4" voltageLevelId2="VL4" p1="56.08705981500669" q1="-1.7302430501671768" p2="-54.41309686496289" q2="3.1912641255194103"/>
    <iidm:line id="L2-5-1" r="5.695E-4" x="0.0017388" b1="1.73" b2="1.73" bus1="B2" connectableBus1="B2" voltageLevelId1="VL2" bus2="B5" connectableBus2="B5" voltageLevelId2="VL5" p1="41.43497174916875" q1="0.9051868430390382" p2="-40.53554453627291" q2="-1.8481468203730662"/>
    <iidm:line id="L3-4-1" r="6.701E-4" x="0.0017102999999999999" b1="0.64" b2="0.64" bus1="B3" connectableBus1="B3" voltageLevelId1="VL3" bus2="B4" connectableBus2="B4" voltageLevelId2="VL4" p1="-23.339091648553538" q1="4.298866192308682" p2="23.71301863607503" q2="-4.660601598334643"/>
    <iidm:line id="L4-5-1" r="1.3350000000000002E-4" x="4.211E-4" bus1="B4" connectableBus1="B4" voltageLevelId1="VL4" bus2="B5" connectableBus2="B5" voltageLevelId2="VL5" p1="-61.35283310325834" q1="15.506179520895373" p2="61.868710055227915" q2="-13.87894518026324"/>
    <iidm:line id="L6-11-1" r="9.498E-4" x="0.001989" bus1="B6" connectableBus1="B6" voltageLevelId1="VL5" bus2="B11" connectableBus2="B11" voltageLevelId2="VL11" p1="7.336764124036019" q1="3.518103633220369" p2="-7.281840845230593" q2="-3.4030874176549952"/>
    <iidm:line id="L6-12-1" r="0.0012291000000000001" x="0.0025581" bus1="B6" connectableBus1="B6" voltageLevelId1="VL5" bus2="B12" connectableBus2="B12" voltageLevelId2="VL12" p1="7.849685030631457" q1="2.552328640974945" p2="-7.776542430194539" q2="-2.4000984838049164"/>
    <iidm:line id="L6-13-1" r="6.615E-4" x="0.0013027" bus1="B6" connectableBus1="B6" voltageLevelId1="VL5" bus2="B13" connectableBus2="B13" voltageLevelId2="VL13" p1="17.92680495621049" q1="7.4404051072185755" p2="-17.709138023508487" q2="-7.011750967791672"/>
    <iidm:line id="L7-8-1" r="0.0" x="0.0017615" bus1="B7" connectableBus1="B7" voltageLevelId1="VL4" bus2="B8" connectableBus2="B8" voltageLevelId2="VL8" p1="-9.769962616701378E-15" q1="-16.88106727221128" p2="9.325873406851315E-15" q2="17.326142492194254"/>
    <iidm:line id="L7-9-1" r="0.0" x="0.0011001" bus1="B7" connectableBus1="B7" voltageLevelId1="VL4" bus2="B9" connectableBus2="B9" voltageLevelId2="VL4" p1="28.108371214225585" q1="6.1797863346607835" p2="-28.108371214225585" q2="-5.3718907856009945"/>
    <iidm:line id="L9-10-1" r="3.181E-4" x="8.45E-4" bus1="B9" connectableBus1="B9" voltageLevelId1="VL4" bus2="B10" connectableBus2="B10" voltageLevelId2="VL10" p1="5.274515902374918" q1="4.268051989907747" p2="-5.261383601417242" q2="-4.233167380321964"/>
    <iidm:line id="L9-14-1" r="0.0012711" x="0.0027038" bus1="B9" connectableBus1="B9" voltageLevelId1="VL4" bus2="B14" connectableBus2="B14" voltageLevelId2="VL14" p1="9.339568641122321" q1="3.49376405544432" p2="-9.22622778582496" q2="-3.252672870995411"/>
    <iidm:line id="L10-11-1" r="8.204999999999999E-4" x="0.0019207" bus1="B10" connectableBus1="B10" voltageLevelId1="VL10" bus2="B11" connectableBus2="B11" voltageLevelId2="VL11" p1="-3.829441562512516" q1="-1.6388207630515992" p2="3.8423294444181595" q2="1.6689898730773987"/>
    <iidm:line id="L12-13-1" r="0.0022092" x="0.0019988000000000002" bus1="B12" connectableBus1="B12" voltageLevelId1="VL12" bus2="B13" connectableBus2="B13" voltageLevelId2="VL13" p1="1.6615444669128372" q1="0.8031797935511802" p2="-1.6547843718856987" q2="-0.7970635170980549"/>
    <iidm:line id="L13-14-1" r="0.0017093" x="0.0034802" bus1="B13" connectableBus1="B13" voltageLevelId1="VL13" bus2="B14" connectableBus2="B14" voltageLevelId2="VL14" p1="5.509245481064252" q1="1.5540625689550724" p2="-5.458444160664185" q2="-1.4506291428412763"/>
    <iidm:extension id="VL1">
        <slt:slackTerminal id="B1-G"/>
    </iidm:extension>
</iidm:network>
